New Loadshape.Shape_DER_1 npts=288 interval=0.0833 mult=(file=F:\DER_Analysis\Input_Profiles\Individual_Profiles\DER1_P.txt) useactual=true
New Loadshape.Shape_DER_2 npts=288 interval=0.0833 mult=(file=F:\DER_Analysis\Input_Profiles\Individual_Profiles\DER2_P.txt) useactual=true
New Loadshape.Shape_DER_3 npts=288 interval=0.0833 mult=(file=F:\DER_Analysis\Input_Profiles\Individual_Profiles\DER3_P.txt) useactual=true
New Loadshape.Shape_DER_4 npts=288 interval=0.0833 mult=(file=F:\DER_Analysis\Input_Profiles\Individual_Profiles\DER4_P.txt) useactual=true
New Loadshape.Shape_DER_5 npts=288 interval=0.0833 mult=(file=F:\DER_Analysis\Input_Profiles\Individual_Profiles\DER5_P.txt) useactual=true
New Loadshape.Shape_DER_6 npts=288 interval=0.0833 mult=(file=F:\DER_Analysis\Input_Profiles\Individual_Profiles\DER6_P.txt) useactual=true
New Loadshape.Shape_DER_7 npts=288 interval=0.0833 mult=(file=F:\DER_Analysis\Input_Profiles\Individual_Profiles\DER7_P.txt) useactual=true
New Loadshape.Shape_DER_8 npts=288 interval=0.0833 mult=(file=F:\DER_Analysis\Input_Profiles\Individual_Profiles\DER8_P.txt) useactual=true
New Loadshape.Shape_DER_9 npts=288 interval=0.0833 mult=(file=F:\DER_Analysis\Input_Profiles\Individual_Profiles\DER9_P.txt) useactual=true
New Loadshape.Shape_DER_10 npts=288 interval=0.0833 mult=(file=F:\DER_Analysis\Input_Profiles\Individual_Profiles\DER10_P.txt) useactual=true
New Loadshape.Shape_DER_11 npts=288 interval=0.0833 mult=(file=F:\DER_Analysis\Input_Profiles\Individual_Profiles\DER11_P.txt) useactual=true
New Loadshape.Shape_DER_12 npts=288 interval=0.0833 mult=(file=F:\DER_Analysis\Input_Profiles\Individual_Profiles\DER12_P.txt) useactual=true
New Loadshape.Shape_DER_13 npts=288 interval=0.0833 mult=(file=F:\DER_Analysis\Input_Profiles\Individual_Profiles\DER13_P.txt) useactual=true
New Loadshape.Shape_DER_14 npts=288 interval=0.0833 mult=(file=F:\DER_Analysis\Input_Profiles\Individual_Profiles\DER14_P.txt) useactual=true
New Loadshape.Shape_DER_15 npts=288 interval=0.0833 mult=(file=F:\DER_Analysis\Input_Profiles\Individual_Profiles\DER15_P.txt) useactual=true
New Loadshape.Shape_DER_16 npts=288 interval=0.0833 mult=(file=F:\DER_Analysis\Input_Profiles\Individual_Profiles\DER16_P.txt) useactual=true
New Loadshape.Shape_DER_17 npts=288 interval=0.0833 mult=(file=F:\DER_Analysis\Input_Profiles\Individual_Profiles\DER17_P.txt) useactual=true
New Loadshape.Shape_DER_18 npts=288 interval=0.0833 mult=(file=F:\DER_Analysis\Input_Profiles\Individual_Profiles\DER18_P.txt) useactual=true
New Loadshape.Shape_DER_19 npts=288 interval=0.0833 mult=(file=F:\DER_Analysis\Input_Profiles\Individual_Profiles\DER19_P.txt) useactual=true
New Loadshape.Shape_DER_20 npts=288 interval=0.0833 mult=(file=F:\DER_Analysis\Input_Profiles\Individual_Profiles\DER20_P.txt) useactual=true
New Loadshape.Shape_DER_21 npts=288 interval=0.0833 mult=(file=F:\DER_Analysis\Input_Profiles\Individual_Profiles\DER21_P.txt) useactual=true
New Loadshape.Shape_DER_22 npts=288 interval=0.0833 mult=(file=F:\DER_Analysis\Input_Profiles\Individual_Profiles\DER22_P.txt) useactual=true
New Loadshape.Shape_DER_23 npts=288 interval=0.0833 mult=(file=F:\DER_Analysis\Input_Profiles\Individual_Profiles\DER23_P.txt) useactual=true
New Loadshape.Shape_DER_24 npts=288 interval=0.0833 mult=(file=F:\DER_Analysis\Input_Profiles\Individual_Profiles\DER24_P.txt) useactual=true
New Loadshape.Shape_DER_25 npts=288 interval=0.0833 mult=(file=F:\DER_Analysis\Input_Profiles\Individual_Profiles\DER25_P.txt) useactual=true
New Loadshape.Shape_DER_26 npts=288 interval=0.0833 mult=(file=F:\DER_Analysis\Input_Profiles\Individual_Profiles\DER26_P.txt) useactual=true
New Loadshape.Shape_DER_27 npts=288 interval=0.0833 mult=(file=F:\DER_Analysis\Input_Profiles\Individual_Profiles\DER27_P.txt) useactual=true
New Loadshape.Shape_DER_28 npts=288 interval=0.0833 mult=(file=F:\DER_Analysis\Input_Profiles\Individual_Profiles\DER28_P.txt) useactual=true
New Loadshape.Shape_DER_29 npts=288 interval=0.0833 mult=(file=F:\DER_Analysis\Input_Profiles\Individual_Profiles\DER29_P.txt) useactual=true
New Loadshape.Shape_DER_30 npts=288 interval=0.0833 mult=(file=F:\DER_Analysis\Input_Profiles\Individual_Profiles\DER30_P.txt) useactual=true
New Loadshape.Shape_DER_31 npts=288 interval=0.0833 mult=(file=F:\DER_Analysis\Input_Profiles\Individual_Profiles\DER31_P.txt) useactual=true
New Loadshape.Shape_DER_32 npts=288 interval=0.0833 mult=(file=F:\DER_Analysis\Input_Profiles\Individual_Profiles\DER32_P.txt) useactual=true
New Loadshape.Shape_DER_33 npts=288 interval=0.0833 mult=(file=F:\DER_Analysis\Input_Profiles\Individual_Profiles\DER33_P.txt) useactual=true
New Loadshape.Shape_DER_34 npts=288 interval=0.0833 mult=(file=F:\DER_Analysis\Input_Profiles\Individual_Profiles\DER34_P.txt) useactual=true
New Loadshape.Shape_DER_35 npts=288 interval=0.0833 mult=(file=F:\DER_Analysis\Input_Profiles\Individual_Profiles\DER35_P.txt) useactual=true
New Loadshape.Shape_DER_36 npts=288 interval=0.0833 mult=(file=F:\DER_Analysis\Input_Profiles\Individual_Profiles\DER36_P.txt) useactual=true
New Loadshape.Shape_DER_37 npts=288 interval=0.0833 mult=(file=F:\DER_Analysis\Input_Profiles\Individual_Profiles\DER37_P.txt) useactual=true
New Loadshape.Shape_DER_38 npts=288 interval=0.0833 mult=(file=F:\DER_Analysis\Input_Profiles\Individual_Profiles\DER38_P.txt) useactual=true
New Loadshape.Shape_DER_39 npts=288 interval=0.0833 mult=(file=F:\DER_Analysis\Input_Profiles\Individual_Profiles\DER39_P.txt) useactual=true
New Loadshape.Shape_DER_40 npts=288 interval=0.0833 mult=(file=F:\DER_Analysis\Input_Profiles\Individual_Profiles\DER40_P.txt) useactual=true
New Loadshape.Shape_DER_41 npts=288 interval=0.0833 mult=(file=F:\DER_Analysis\Input_Profiles\Individual_Profiles\DER41_P.txt) useactual=true
New Loadshape.Shape_DER_42 npts=288 interval=0.0833 mult=(file=F:\DER_Analysis\Input_Profiles\Individual_Profiles\DER42_P.txt) useactual=true
New Loadshape.Shape_DER_43 npts=288 interval=0.0833 mult=(file=F:\DER_Analysis\Input_Profiles\Individual_Profiles\DER43_P.txt) useactual=true
New Loadshape.Shape_DER_44 npts=288 interval=0.0833 mult=(file=F:\DER_Analysis\Input_Profiles\Individual_Profiles\DER44_P.txt) useactual=true
New Loadshape.Shape_DER_45 npts=288 interval=0.0833 mult=(file=F:\DER_Analysis\Input_Profiles\Individual_Profiles\DER45_P.txt) useactual=true
New Loadshape.Shape_DER_46 npts=288 interval=0.0833 mult=(file=F:\DER_Analysis\Input_Profiles\Individual_Profiles\DER46_P.txt) useactual=true
New Loadshape.Shape_DER_47 npts=288 interval=0.0833 mult=(file=F:\DER_Analysis\Input_Profiles\Individual_Profiles\DER47_P.txt) useactual=true
New Loadshape.Shape_DER_48 npts=288 interval=0.0833 mult=(file=F:\DER_Analysis\Input_Profiles\Individual_Profiles\DER48_P.txt) useactual=true
New Loadshape.Shape_DER_49 npts=288 interval=0.0833 mult=(file=F:\DER_Analysis\Input_Profiles\Individual_Profiles\DER49_P.txt) useactual=true
New Loadshape.Shape_DER_50 npts=288 interval=0.0833 mult=(file=F:\DER_Analysis\Input_Profiles\Individual_Profiles\DER50_P.txt) useactual=true
New Loadshape.Shape_DER_51 npts=288 interval=0.0833 mult=(file=F:\DER_Analysis\Input_Profiles\Individual_Profiles\DER51_P.txt) useactual=true
New Loadshape.Shape_DER_52 npts=288 interval=0.0833 mult=(file=F:\DER_Analysis\Input_Profiles\Individual_Profiles\DER52_P.txt) useactual=true
New Loadshape.Shape_DER_53 npts=288 interval=0.0833 mult=(file=F:\DER_Analysis\Input_Profiles\Individual_Profiles\DER53_P.txt) useactual=true
New Loadshape.Shape_DER_54 npts=288 interval=0.0833 mult=(file=F:\DER_Analysis\Input_Profiles\Individual_Profiles\DER54_P.txt) useactual=true
New Loadshape.Shape_DER_55 npts=288 interval=0.0833 mult=(file=F:\DER_Analysis\Input_Profiles\Individual_Profiles\DER55_P.txt) useactual=true
