New generator.DER_1 bus1=34.1 phases=1 kV=0.230 kW=1 pf=1 model=1 Vmaxpu=1.5 status=variable daily=Shape_DER_1
New generator.DER_2 bus1=47.2 phases=1 kV=0.230 kW=1 pf=1 model=1 Vmaxpu=1.5 status=variable daily=Shape_DER_2
New generator.DER_3 bus1=70.1 phases=1 kV=0.230 kW=1 pf=1 model=1 Vmaxpu=1.5 status=variable daily=Shape_DER_3
New generator.DER_4 bus1=73.1 phases=1 kV=0.230 kW=1 pf=1 model=1 Vmaxpu=1.5 status=variable daily=Shape_DER_4
New generator.DER_5 bus1=74.1 phases=1 kV=0.230 kW=1 pf=1 model=1 Vmaxpu=1.5 status=variable daily=Shape_DER_5
New generator.DER_6 bus1=83.2 phases=1 kV=0.230 kW=1 pf=1 model=1 Vmaxpu=1.5 status=variable daily=Shape_DER_6
New generator.DER_7 bus1=178.2 phases=1 kV=0.230 kW=1 pf=1 model=1 Vmaxpu=1.5 status=variable daily=Shape_DER_7
New generator.DER_8 bus1=208.3 phases=1 kV=0.230 kW=1 pf=1 model=1 Vmaxpu=1.5 status=variable daily=Shape_DER_8
New generator.DER_9 bus1=225.1 phases=1 kV=0.230 kW=1 pf=1 model=1 Vmaxpu=1.5 status=variable daily=Shape_DER_9
New generator.DER_10 bus1=248.2 phases=1 kV=0.230 kW=1 pf=1 model=1 Vmaxpu=1.5 status=variable daily=Shape_DER_10
New generator.DER_11 bus1=249.2 phases=1 kV=0.230 kW=1 pf=1 model=1 Vmaxpu=1.5 status=variable daily=Shape_DER_11
New generator.DER_12 bus1=264.3 phases=1 kV=0.230 kW=1 pf=1 model=1 Vmaxpu=1.5 status=variable daily=Shape_DER_12
New generator.DER_13 bus1=276.2 phases=1 kV=0.230 kW=1 pf=1 model=1 Vmaxpu=1.5 status=variable daily=Shape_DER_13
New generator.DER_14 bus1=289.1 phases=1 kV=0.230 kW=1 pf=1 model=1 Vmaxpu=1.5 status=variable daily=Shape_DER_14
New generator.DER_15 bus1=314.2 phases=1 kV=0.230 kW=1 pf=1 model=1 Vmaxpu=1.5 status=variable daily=Shape_DER_15
New generator.DER_16 bus1=320.3 phases=1 kV=0.230 kW=1 pf=1 model=1 Vmaxpu=1.5 status=variable daily=Shape_DER_16
New generator.DER_17 bus1=327.3 phases=1 kV=0.230 kW=1 pf=1 model=1 Vmaxpu=1.5 status=variable daily=Shape_DER_17
New generator.DER_18 bus1=337.3 phases=1 kV=0.230 kW=1 pf=1 model=1 Vmaxpu=1.5 status=variable daily=Shape_DER_18
New generator.DER_19 bus1=342.3 phases=1 kV=0.230 kW=1 pf=1 model=1 Vmaxpu=1.5 status=variable daily=Shape_DER_19
New generator.DER_20 bus1=349.1 phases=1 kV=0.230 kW=1 pf=1 model=1 Vmaxpu=1.5 status=variable daily=Shape_DER_20
New generator.DER_21 bus1=387.1 phases=1 kV=0.230 kW=1 pf=1 model=1 Vmaxpu=1.5 status=variable daily=Shape_DER_21
New generator.DER_22 bus1=388.1 phases=1 kV=0.230 kW=1 pf=1 model=1 Vmaxpu=1.5 status=variable daily=Shape_DER_22
New generator.DER_23 bus1=406.2 phases=1 kV=0.230 kW=1 pf=1 model=1 Vmaxpu=1.5 status=variable daily=Shape_DER_23
New generator.DER_24 bus1=458.3 phases=1 kV=0.230 kW=1 pf=1 model=1 Vmaxpu=1.5 status=variable daily=Shape_DER_24
New generator.DER_25 bus1=502.1 phases=1 kV=0.230 kW=1 pf=1 model=1 Vmaxpu=1.5 status=variable daily=Shape_DER_25
New generator.DER_26 bus1=522.2 phases=1 kV=0.230 kW=1 pf=1 model=1 Vmaxpu=1.5 status=variable daily=Shape_DER_26
New generator.DER_27 bus1=539.3 phases=1 kV=0.230 kW=1 pf=1 model=1 Vmaxpu=1.5 status=variable daily=Shape_DER_27
New generator.DER_28 bus1=556.3 phases=1 kV=0.230 kW=1 pf=1 model=1 Vmaxpu=1.5 status=variable daily=Shape_DER_28
New generator.DER_29 bus1=562.1 phases=1 kV=0.230 kW=1 pf=1 model=1 Vmaxpu=1.5 status=variable daily=Shape_DER_29
New generator.DER_30 bus1=563.1 phases=1 kV=0.230 kW=1 pf=1 model=1 Vmaxpu=1.5 status=variable daily=Shape_DER_30
New generator.DER_31 bus1=611.1 phases=1 kV=0.230 kW=1 pf=1 model=1 Vmaxpu=1.5 status=variable daily=Shape_DER_31
New generator.DER_32 bus1=614.3 phases=1 kV=0.230 kW=1 pf=1 model=1 Vmaxpu=1.5 status=variable daily=Shape_DER_32
New generator.DER_33 bus1=619.3 phases=1 kV=0.230 kW=1 pf=1 model=1 Vmaxpu=1.5 status=variable daily=Shape_DER_33
New generator.DER_34 bus1=629.1 phases=1 kV=0.230 kW=1 pf=1 model=1 Vmaxpu=1.5 status=variable daily=Shape_DER_34
New generator.DER_35 bus1=639.2 phases=1 kV=0.230 kW=1 pf=1 model=1 Vmaxpu=1.5 status=variable daily=Shape_DER_35
New generator.DER_36 bus1=676.2 phases=1 kV=0.230 kW=1 pf=1 model=1 Vmaxpu=1.5 status=variable daily=Shape_DER_36
New generator.DER_37 bus1=682.2 phases=1 kV=0.230 kW=1 pf=1 model=1 Vmaxpu=1.5 status=variable daily=Shape_DER_37
New generator.DER_38 bus1=688.2 phases=1 kV=0.230 kW=1 pf=1 model=1 Vmaxpu=1.5 status=variable daily=Shape_DER_38
New generator.DER_39 bus1=701.3 phases=1 kV=0.230 kW=1 pf=1 model=1 Vmaxpu=1.5 status=variable daily=Shape_DER_39
New generator.DER_40 bus1=702.2 phases=1 kV=0.230 kW=1 pf=1 model=1 Vmaxpu=1.5 status=variable daily=Shape_DER_40
New generator.DER_41 bus1=755.2 phases=1 kV=0.230 kW=1 pf=1 model=1 Vmaxpu=1.5 status=variable daily=Shape_DER_41
New generator.DER_42 bus1=778.3 phases=1 kV=0.230 kW=1 pf=1 model=1 Vmaxpu=1.5 status=variable daily=Shape_DER_42
New generator.DER_43 bus1=780.3 phases=1 kV=0.230 kW=1 pf=1 model=1 Vmaxpu=1.5 status=variable daily=Shape_DER_43
New generator.DER_44 bus1=785.2 phases=1 kV=0.230 kW=1 pf=1 model=1 Vmaxpu=1.5 status=variable daily=Shape_DER_44
New generator.DER_45 bus1=813.2 phases=1 kV=0.230 kW=1 pf=1 model=1 Vmaxpu=1.5 status=variable daily=Shape_DER_45
New generator.DER_46 bus1=817.1 phases=1 kV=0.230 kW=1 pf=1 model=1 Vmaxpu=1.5 status=variable daily=Shape_DER_46
New generator.DER_47 bus1=835.3 phases=1 kV=0.230 kW=1 pf=1 model=1 Vmaxpu=1.5 status=variable daily=Shape_DER_47
New generator.DER_48 bus1=860.1 phases=1 kV=0.230 kW=1 pf=1 model=1 Vmaxpu=1.5 status=variable daily=Shape_DER_48
New generator.DER_49 bus1=861.1 phases=1 kV=0.230 kW=1 pf=1 model=1 Vmaxpu=1.5 status=variable daily=Shape_DER_49
New generator.DER_50 bus1=886.2 phases=1 kV=0.230 kW=1 pf=1 model=1 Vmaxpu=1.5 status=variable daily=Shape_DER_50
New generator.DER_51 bus1=896.1 phases=1 kV=0.230 kW=1 pf=1 model=1 Vmaxpu=1.5 status=variable daily=Shape_DER_51
New generator.DER_52 bus1=898.1 phases=1 kV=0.230 kW=1 pf=1 model=1 Vmaxpu=1.5 status=variable daily=Shape_DER_52
New generator.DER_53 bus1=899.2 phases=1 kV=0.230 kW=1 pf=1 model=1 Vmaxpu=1.5 status=variable daily=Shape_DER_53
New generator.DER_54 bus1=900.1 phases=1 kV=0.230 kW=1 pf=1 model=1 Vmaxpu=1.5 status=variable daily=Shape_DER_54
New generator.DER_55 bus1=906.1 phases=1 kV=0.230 kW=1 pf=1 model=1 Vmaxpu=1.5 status=variable daily=Shape_DER_55
