New Loadshape.Shape_1 npts=288 interval=0.0833 mult=(file=F:\DER_Analysis\Input_Profiles\Individual_Profiles\Load1_P.txt) useactual=true qmult=(file=F:\DER_Analysis\Input_Profiles\Individual_Profiles\Load1_Q.txt
New Loadshape.Shape_2 npts=288 interval=0.0833 mult=(file=F:\DER_Analysis\Input_Profiles\Individual_Profiles\Load2_P.txt) useactual=true qmult=(file=F:\DER_Analysis\Input_Profiles\Individual_Profiles\Load2_Q.txt
New Loadshape.Shape_3 npts=288 interval=0.0833 mult=(file=F:\DER_Analysis\Input_Profiles\Individual_Profiles\Load3_P.txt) useactual=true qmult=(file=F:\DER_Analysis\Input_Profiles\Individual_Profiles\Load3_Q.txt
New Loadshape.Shape_4 npts=288 interval=0.0833 mult=(file=F:\DER_Analysis\Input_Profiles\Individual_Profiles\Load4_P.txt) useactual=true qmult=(file=F:\DER_Analysis\Input_Profiles\Individual_Profiles\Load4_Q.txt
New Loadshape.Shape_5 npts=288 interval=0.0833 mult=(file=F:\DER_Analysis\Input_Profiles\Individual_Profiles\Load5_P.txt) useactual=true qmult=(file=F:\DER_Analysis\Input_Profiles\Individual_Profiles\Load5_Q.txt
New Loadshape.Shape_6 npts=288 interval=0.0833 mult=(file=F:\DER_Analysis\Input_Profiles\Individual_Profiles\Load6_P.txt) useactual=true qmult=(file=F:\DER_Analysis\Input_Profiles\Individual_Profiles\Load6_Q.txt
New Loadshape.Shape_7 npts=288 interval=0.0833 mult=(file=F:\DER_Analysis\Input_Profiles\Individual_Profiles\Load7_P.txt) useactual=true qmult=(file=F:\DER_Analysis\Input_Profiles\Individual_Profiles\Load7_Q.txt
New Loadshape.Shape_8 npts=288 interval=0.0833 mult=(file=F:\DER_Analysis\Input_Profiles\Individual_Profiles\Load8_P.txt) useactual=true qmult=(file=F:\DER_Analysis\Input_Profiles\Individual_Profiles\Load8_Q.txt
New Loadshape.Shape_9 npts=288 interval=0.0833 mult=(file=F:\DER_Analysis\Input_Profiles\Individual_Profiles\Load9_P.txt) useactual=true qmult=(file=F:\DER_Analysis\Input_Profiles\Individual_Profiles\Load9_Q.txt
New Loadshape.Shape_10 npts=288 interval=0.0833 mult=(file=F:\DER_Analysis\Input_Profiles\Individual_Profiles\Load10_P.txt) useactual=true qmult=(file=F:\DER_Analysis\Input_Profiles\Individual_Profiles\Load10_Q.txt
New Loadshape.Shape_11 npts=288 interval=0.0833 mult=(file=F:\DER_Analysis\Input_Profiles\Individual_Profiles\Load11_P.txt) useactual=true qmult=(file=F:\DER_Analysis\Input_Profiles\Individual_Profiles\Load11_Q.txt
New Loadshape.Shape_12 npts=288 interval=0.0833 mult=(file=F:\DER_Analysis\Input_Profiles\Individual_Profiles\Load12_P.txt) useactual=true qmult=(file=F:\DER_Analysis\Input_Profiles\Individual_Profiles\Load12_Q.txt
New Loadshape.Shape_13 npts=288 interval=0.0833 mult=(file=F:\DER_Analysis\Input_Profiles\Individual_Profiles\Load13_P.txt) useactual=true qmult=(file=F:\DER_Analysis\Input_Profiles\Individual_Profiles\Load13_Q.txt
New Loadshape.Shape_14 npts=288 interval=0.0833 mult=(file=F:\DER_Analysis\Input_Profiles\Individual_Profiles\Load14_P.txt) useactual=true qmult=(file=F:\DER_Analysis\Input_Profiles\Individual_Profiles\Load14_Q.txt
New Loadshape.Shape_15 npts=288 interval=0.0833 mult=(file=F:\DER_Analysis\Input_Profiles\Individual_Profiles\Load15_P.txt) useactual=true qmult=(file=F:\DER_Analysis\Input_Profiles\Individual_Profiles\Load15_Q.txt
New Loadshape.Shape_16 npts=288 interval=0.0833 mult=(file=F:\DER_Analysis\Input_Profiles\Individual_Profiles\Load16_P.txt) useactual=true qmult=(file=F:\DER_Analysis\Input_Profiles\Individual_Profiles\Load16_Q.txt
New Loadshape.Shape_17 npts=288 interval=0.0833 mult=(file=F:\DER_Analysis\Input_Profiles\Individual_Profiles\Load17_P.txt) useactual=true qmult=(file=F:\DER_Analysis\Input_Profiles\Individual_Profiles\Load17_Q.txt
New Loadshape.Shape_18 npts=288 interval=0.0833 mult=(file=F:\DER_Analysis\Input_Profiles\Individual_Profiles\Load18_P.txt) useactual=true qmult=(file=F:\DER_Analysis\Input_Profiles\Individual_Profiles\Load18_Q.txt
New Loadshape.Shape_19 npts=288 interval=0.0833 mult=(file=F:\DER_Analysis\Input_Profiles\Individual_Profiles\Load19_P.txt) useactual=true qmult=(file=F:\DER_Analysis\Input_Profiles\Individual_Profiles\Load19_Q.txt
New Loadshape.Shape_20 npts=288 interval=0.0833 mult=(file=F:\DER_Analysis\Input_Profiles\Individual_Profiles\Load20_P.txt) useactual=true qmult=(file=F:\DER_Analysis\Input_Profiles\Individual_Profiles\Load20_Q.txt
New Loadshape.Shape_21 npts=288 interval=0.0833 mult=(file=F:\DER_Analysis\Input_Profiles\Individual_Profiles\Load21_P.txt) useactual=true qmult=(file=F:\DER_Analysis\Input_Profiles\Individual_Profiles\Load21_Q.txt
New Loadshape.Shape_22 npts=288 interval=0.0833 mult=(file=F:\DER_Analysis\Input_Profiles\Individual_Profiles\Load22_P.txt) useactual=true qmult=(file=F:\DER_Analysis\Input_Profiles\Individual_Profiles\Load22_Q.txt
New Loadshape.Shape_23 npts=288 interval=0.0833 mult=(file=F:\DER_Analysis\Input_Profiles\Individual_Profiles\Load23_P.txt) useactual=true qmult=(file=F:\DER_Analysis\Input_Profiles\Individual_Profiles\Load23_Q.txt
New Loadshape.Shape_24 npts=288 interval=0.0833 mult=(file=F:\DER_Analysis\Input_Profiles\Individual_Profiles\Load24_P.txt) useactual=true qmult=(file=F:\DER_Analysis\Input_Profiles\Individual_Profiles\Load24_Q.txt
New Loadshape.Shape_25 npts=288 interval=0.0833 mult=(file=F:\DER_Analysis\Input_Profiles\Individual_Profiles\Load25_P.txt) useactual=true qmult=(file=F:\DER_Analysis\Input_Profiles\Individual_Profiles\Load25_Q.txt
New Loadshape.Shape_26 npts=288 interval=0.0833 mult=(file=F:\DER_Analysis\Input_Profiles\Individual_Profiles\Load26_P.txt) useactual=true qmult=(file=F:\DER_Analysis\Input_Profiles\Individual_Profiles\Load26_Q.txt
New Loadshape.Shape_27 npts=288 interval=0.0833 mult=(file=F:\DER_Analysis\Input_Profiles\Individual_Profiles\Load27_P.txt) useactual=true qmult=(file=F:\DER_Analysis\Input_Profiles\Individual_Profiles\Load27_Q.txt
New Loadshape.Shape_28 npts=288 interval=0.0833 mult=(file=F:\DER_Analysis\Input_Profiles\Individual_Profiles\Load28_P.txt) useactual=true qmult=(file=F:\DER_Analysis\Input_Profiles\Individual_Profiles\Load28_Q.txt
New Loadshape.Shape_29 npts=288 interval=0.0833 mult=(file=F:\DER_Analysis\Input_Profiles\Individual_Profiles\Load29_P.txt) useactual=true qmult=(file=F:\DER_Analysis\Input_Profiles\Individual_Profiles\Load29_Q.txt
New Loadshape.Shape_30 npts=288 interval=0.0833 mult=(file=F:\DER_Analysis\Input_Profiles\Individual_Profiles\Load30_P.txt) useactual=true qmult=(file=F:\DER_Analysis\Input_Profiles\Individual_Profiles\Load30_Q.txt
New Loadshape.Shape_31 npts=288 interval=0.0833 mult=(file=F:\DER_Analysis\Input_Profiles\Individual_Profiles\Load31_P.txt) useactual=true qmult=(file=F:\DER_Analysis\Input_Profiles\Individual_Profiles\Load31_Q.txt
New Loadshape.Shape_32 npts=288 interval=0.0833 mult=(file=F:\DER_Analysis\Input_Profiles\Individual_Profiles\Load32_P.txt) useactual=true qmult=(file=F:\DER_Analysis\Input_Profiles\Individual_Profiles\Load32_Q.txt
New Loadshape.Shape_33 npts=288 interval=0.0833 mult=(file=F:\DER_Analysis\Input_Profiles\Individual_Profiles\Load33_P.txt) useactual=true qmult=(file=F:\DER_Analysis\Input_Profiles\Individual_Profiles\Load33_Q.txt
New Loadshape.Shape_34 npts=288 interval=0.0833 mult=(file=F:\DER_Analysis\Input_Profiles\Individual_Profiles\Load34_P.txt) useactual=true qmult=(file=F:\DER_Analysis\Input_Profiles\Individual_Profiles\Load34_Q.txt
New Loadshape.Shape_35 npts=288 interval=0.0833 mult=(file=F:\DER_Analysis\Input_Profiles\Individual_Profiles\Load35_P.txt) useactual=true qmult=(file=F:\DER_Analysis\Input_Profiles\Individual_Profiles\Load35_Q.txt
New Loadshape.Shape_36 npts=288 interval=0.0833 mult=(file=F:\DER_Analysis\Input_Profiles\Individual_Profiles\Load36_P.txt) useactual=true qmult=(file=F:\DER_Analysis\Input_Profiles\Individual_Profiles\Load36_Q.txt
New Loadshape.Shape_37 npts=288 interval=0.0833 mult=(file=F:\DER_Analysis\Input_Profiles\Individual_Profiles\Load37_P.txt) useactual=true qmult=(file=F:\DER_Analysis\Input_Profiles\Individual_Profiles\Load37_Q.txt
New Loadshape.Shape_38 npts=288 interval=0.0833 mult=(file=F:\DER_Analysis\Input_Profiles\Individual_Profiles\Load38_P.txt) useactual=true qmult=(file=F:\DER_Analysis\Input_Profiles\Individual_Profiles\Load38_Q.txt
New Loadshape.Shape_39 npts=288 interval=0.0833 mult=(file=F:\DER_Analysis\Input_Profiles\Individual_Profiles\Load39_P.txt) useactual=true qmult=(file=F:\DER_Analysis\Input_Profiles\Individual_Profiles\Load39_Q.txt
New Loadshape.Shape_40 npts=288 interval=0.0833 mult=(file=F:\DER_Analysis\Input_Profiles\Individual_Profiles\Load40_P.txt) useactual=true qmult=(file=F:\DER_Analysis\Input_Profiles\Individual_Profiles\Load40_Q.txt
New Loadshape.Shape_41 npts=288 interval=0.0833 mult=(file=F:\DER_Analysis\Input_Profiles\Individual_Profiles\Load41_P.txt) useactual=true qmult=(file=F:\DER_Analysis\Input_Profiles\Individual_Profiles\Load41_Q.txt
New Loadshape.Shape_42 npts=288 interval=0.0833 mult=(file=F:\DER_Analysis\Input_Profiles\Individual_Profiles\Load42_P.txt) useactual=true qmult=(file=F:\DER_Analysis\Input_Profiles\Individual_Profiles\Load42_Q.txt
New Loadshape.Shape_43 npts=288 interval=0.0833 mult=(file=F:\DER_Analysis\Input_Profiles\Individual_Profiles\Load43_P.txt) useactual=true qmult=(file=F:\DER_Analysis\Input_Profiles\Individual_Profiles\Load43_Q.txt
New Loadshape.Shape_44 npts=288 interval=0.0833 mult=(file=F:\DER_Analysis\Input_Profiles\Individual_Profiles\Load44_P.txt) useactual=true qmult=(file=F:\DER_Analysis\Input_Profiles\Individual_Profiles\Load44_Q.txt
New Loadshape.Shape_45 npts=288 interval=0.0833 mult=(file=F:\DER_Analysis\Input_Profiles\Individual_Profiles\Load45_P.txt) useactual=true qmult=(file=F:\DER_Analysis\Input_Profiles\Individual_Profiles\Load45_Q.txt
New Loadshape.Shape_46 npts=288 interval=0.0833 mult=(file=F:\DER_Analysis\Input_Profiles\Individual_Profiles\Load46_P.txt) useactual=true qmult=(file=F:\DER_Analysis\Input_Profiles\Individual_Profiles\Load46_Q.txt
New Loadshape.Shape_47 npts=288 interval=0.0833 mult=(file=F:\DER_Analysis\Input_Profiles\Individual_Profiles\Load47_P.txt) useactual=true qmult=(file=F:\DER_Analysis\Input_Profiles\Individual_Profiles\Load47_Q.txt
New Loadshape.Shape_48 npts=288 interval=0.0833 mult=(file=F:\DER_Analysis\Input_Profiles\Individual_Profiles\Load48_P.txt) useactual=true qmult=(file=F:\DER_Analysis\Input_Profiles\Individual_Profiles\Load48_Q.txt
New Loadshape.Shape_49 npts=288 interval=0.0833 mult=(file=F:\DER_Analysis\Input_Profiles\Individual_Profiles\Load49_P.txt) useactual=true qmult=(file=F:\DER_Analysis\Input_Profiles\Individual_Profiles\Load49_Q.txt
New Loadshape.Shape_50 npts=288 interval=0.0833 mult=(file=F:\DER_Analysis\Input_Profiles\Individual_Profiles\Load50_P.txt) useactual=true qmult=(file=F:\DER_Analysis\Input_Profiles\Individual_Profiles\Load50_Q.txt
New Loadshape.Shape_51 npts=288 interval=0.0833 mult=(file=F:\DER_Analysis\Input_Profiles\Individual_Profiles\Load51_P.txt) useactual=true qmult=(file=F:\DER_Analysis\Input_Profiles\Individual_Profiles\Load51_Q.txt
New Loadshape.Shape_52 npts=288 interval=0.0833 mult=(file=F:\DER_Analysis\Input_Profiles\Individual_Profiles\Load52_P.txt) useactual=true qmult=(file=F:\DER_Analysis\Input_Profiles\Individual_Profiles\Load52_Q.txt
New Loadshape.Shape_53 npts=288 interval=0.0833 mult=(file=F:\DER_Analysis\Input_Profiles\Individual_Profiles\Load53_P.txt) useactual=true qmult=(file=F:\DER_Analysis\Input_Profiles\Individual_Profiles\Load53_Q.txt
New Loadshape.Shape_54 npts=288 interval=0.0833 mult=(file=F:\DER_Analysis\Input_Profiles\Individual_Profiles\Load54_P.txt) useactual=true qmult=(file=F:\DER_Analysis\Input_Profiles\Individual_Profiles\Load54_Q.txt
New Loadshape.Shape_55 npts=288 interval=0.0833 mult=(file=F:\DER_Analysis\Input_Profiles\Individual_Profiles\Load55_P.txt) useactual=true qmult=(file=F:\DER_Analysis\Input_Profiles\Individual_Profiles\Load55_Q.txt
